  Page 1                                    Thu Mar 27 23:42:05 2025

  ******************************************************************
  *                           E P A N E T                          *
  *                   Hydraulic and Water Quality                  *
  *                   Analysis for Pipe Networks                   *
  *                         Version 2.2                            *
  ******************************************************************
  
  Analysis begun Thu Mar 27 23:42:05 2025

  Analysis ended Thu Mar 27 23:42:05 2025
