  Page 1                                    Mon Jul  7 11:51:44 2025

  ******************************************************************
  *                           E P A N E T                          *
  *                   Hydraulic and Water Quality                  *
  *                   Analysis for Pipe Networks                   *
  *                         Version 2.2                            *
  ******************************************************************
  
  Analysis begun Mon Jul  7 11:51:44 2025

  Analysis ended Mon Jul  7 11:51:45 2025
