  Page 1                                    Sun Jun  1 15:23:06 2025

  ******************************************************************
  *                           E P A N E T                          *
  *                   Hydraulic and Water Quality                  *
  *                   Analysis for Pipe Networks                   *
  *                         Version 2.2                            *
  ******************************************************************
  
  Analysis begun Sun Jun  1 15:23:06 2025

  Analysis ended Sun Jun  1 15:23:06 2025
