  Page 1                                    Tue May 13 17:10:59 2025

  ******************************************************************
  *                           E P A N E T                          *
  *                   Hydraulic and Water Quality                  *
  *                   Analysis for Pipe Networks                   *
  *                         Version 2.2                            *
  ******************************************************************
  
  Analysis begun Tue May 13 17:11:00 2025

  Analysis ended Tue May 13 17:11:00 2025
