  Page 1                                    Sun Feb 09 19:56:50 2025

  ******************************************************************
  *                           E P A N E T                          *
  *                   Hydraulic and Water Quality                  *
  *                   Analysis for Pipe Networks                   *
  *                         Version 2.2                            *
  ******************************************************************
  
  Analysis begun Sun Feb 09 19:56:50 2025

  Analysis ended Sun Feb 09 19:56:50 2025
